modelo_bdgd2opendss/sub__5001462/5002409/CargasMT_SA07_2023056072_5002409_------1-----.dss
New "Load.MT_9020082_M1" bus1="90200825002409.1.2.3" phases=3 conn=Delta model=2 kv=13.800000000 kw = 48.767835 pf=0.92 status=variable vmaxpu=1.5 vminpu=0.5 daily="MT-Tipo1_SA"  
New "Load.MT_9020082_M2" bus1="90200825002409.1.2.3" phases=3 conn=Delta model=3 kv=13.800000000 kw = 48.767835 pf=0.92 status=variable vmaxpu=1.5 vminpu=0.5 daily="MT-Tipo1_SA" 
New "Load.MT_8947579_M1" bus1="89475795002409.1.2.3" phases=3 conn=Delta model=2 kv=13.800000000 kw = 3.811531 pf=0.92 status=variable vmaxpu=1.5 vminpu=0.5 daily="MT-Tipo8_SA"  
New "Load.MT_8947579_M2" bus1="89475795002409.1.2.3" phases=3 conn=Delta model=3 kv=13.800000000 kw = 3.811531 pf=0.92 status=variable vmaxpu=1.5 vminpu=0.5 daily="MT-Tipo8_SA" 
New "Load.MT_8945834_M1" bus1="89458345002409.1.2.3" phases=3 conn=Delta model=2 kv=13.800000000 kw = 3.6458005 pf=0.92 status=variable vmaxpu=1.5 vminpu=0.5 daily="MT-Tipo2_SA"  
New "Load.MT_8945834_M2" bus1="89458345002409.1.2.3" phases=3 conn=Delta model=3 kv=13.800000000 kw = 3.6458005 pf=0.92 status=variable vmaxpu=1.5 vminpu=0.5 daily="MT-Tipo2_SA" 
New "Load.MT_8771064_M1" bus1="87710645002409.1.2.3" phases=3 conn=Delta model=2 kv=13.800000000 kw = 53.499116 pf=0.92 status=variable vmaxpu=1.5 vminpu=0.5 daily="MT-Tipo2_SA"  
New "Load.MT_8771064_M2" bus1="87710645002409.1.2.3" phases=3 conn=Delta model=3 kv=13.800000000 kw = 53.499116 pf=0.92 status=variable vmaxpu=1.5 vminpu=0.5 daily="MT-Tipo2_SA" 
New "Load.MT_8237894_M1" bus1="82378945002409.1.2.3" phases=3 conn=Delta model=2 kv=13.800000000 kw = 20.6514555 pf=0.92 status=variable vmaxpu=1.5 vminpu=0.5 daily="MT-Tipo5_SA"  
New "Load.MT_8237894_M2" bus1="82378945002409.1.2.3" phases=3 conn=Delta model=3 kv=13.800000000 kw = 20.6514555 pf=0.92 status=variable vmaxpu=1.5 vminpu=0.5 daily="MT-Tipo5_SA" 
New "Load.MT_8236791_M1" bus1="82367915002409.1.2.3" phases=3 conn=Delta model=2 kv=13.800000000 kw = 17.682103 pf=0.92 status=variable vmaxpu=1.5 vminpu=0.5 daily="MT-Tipo5_SA"  
New "Load.MT_8236791_M2" bus1="82367915002409.1.2.3" phases=3 conn=Delta model=3 kv=13.800000000 kw = 17.682103 pf=0.92 status=variable vmaxpu=1.5 vminpu=0.5 daily="MT-Tipo5_SA" 
New "Load.MT_8237857_M1" bus1="82378575002409.1.2.3" phases=3 conn=Delta model=2 kv=13.800000000 kw = 6.782291 pf=0.92 status=variable vmaxpu=1.5 vminpu=0.5 daily="MT-Tipo1_SA"  
New "Load.MT_8237857_M2" bus1="82378575002409.1.2.3" phases=3 conn=Delta model=3 kv=13.800000000 kw = 6.782291 pf=0.92 status=variable vmaxpu=1.5 vminpu=0.5 daily="MT-Tipo1_SA" 
New "Load.MT_8237182_M1" bus1="82371825002409.1.2.3" phases=3 conn=Delta model=2 kv=13.800000000 kw = 3.389774 pf=0.92 status=variable vmaxpu=1.5 vminpu=0.5 daily="MT-Tipo1_SA"  
New "Load.MT_8237182_M2" bus1="82371825002409.1.2.3" phases=3 conn=Delta model=3 kv=13.800000000 kw = 3.389774 pf=0.92 status=variable vmaxpu=1.5 vminpu=0.5 daily="MT-Tipo1_SA" 
New "Load.MT_8576452_M1" bus1="85764525002409.1.2.3" phases=3 conn=Delta model=2 kv=13.800000000 kw = 15.992592 pf=0.92 status=variable vmaxpu=1.5 vminpu=0.5 daily="MT-Tipo9_SA"  
New "Load.MT_8576452_M2" bus1="85764525002409.1.2.3" phases=3 conn=Delta model=3 kv=13.800000000 kw = 15.992592 pf=0.92 status=variable vmaxpu=1.5 vminpu=0.5 daily="MT-Tipo9_SA" 
New "Load.MT_8237159_M1" bus1="82371595002409.1.2.3" phases=3 conn=Delta model=2 kv=13.800000000 kw = 15.9367685 pf=0.92 status=variable vmaxpu=1.5 vminpu=0.5 daily="MT-Tipo5_SA"  
New "Load.MT_8237159_M2" bus1="82371595002409.1.2.3" phases=3 conn=Delta model=3 kv=13.800000000 kw = 15.9367685 pf=0.92 status=variable vmaxpu=1.5 vminpu=0.5 daily="MT-Tipo5_SA" 
New "Load.MT_8236807_M1" bus1="82368075002409.1.2.3" phases=3 conn=Delta model=2 kv=13.800000000 kw = 1.101678 pf=0.92 status=variable vmaxpu=1.5 vminpu=0.5 daily="MT-Tipo2_SA"  
New "Load.MT_8236807_M2" bus1="82368075002409.1.2.3" phases=3 conn=Delta model=3 kv=13.800000000 kw = 1.101678 pf=0.92 status=variable vmaxpu=1.5 vminpu=0.5 daily="MT-Tipo2_SA" 
New "Load.MT_8305993_1_M1" bus1="83059935002409.1.2.3" phases=3 conn=Delta model=2 kv=13.800000000 kw = 65.783632 pf=0.92 status=variable vmaxpu=1.5 vminpu=0.5 daily="MT-Tipo5_SA"  
New "Load.MT_8305993_1_M2" bus1="83059935002409.1.2.3" phases=3 conn=Delta model=3 kv=13.800000000 kw = 65.783632 pf=0.92 status=variable vmaxpu=1.5 vminpu=0.5 daily="MT-Tipo5_SA" 
New "Load.MT_8236490_M1" bus1="82364905002409.1.2.3" phases=3 conn=Delta model=2 kv=13.800000000 kw = 7.964192 pf=0.92 status=variable vmaxpu=1.5 vminpu=0.5 daily="MT-Tipo1_SA"  
New "Load.MT_8236490_M2" bus1="82364905002409.1.2.3" phases=3 conn=Delta model=3 kv=13.800000000 kw = 7.964192 pf=0.92 status=variable vmaxpu=1.5 vminpu=0.5 daily="MT-Tipo1_SA" 

New "Load.MT_8305993_2_M1" bus1="83059935002409.1.2.3" phases=3 conn=Delta model=2 kv=13.800000000 kw = 585.71933 pf=0.92 status=variable vmaxpu=1.5 vminpu=0.5 daily="MT-Tipo1_SA"  
New "Load.MT_8305993_2_M2" bus1="83059935002409.1.2.3" phases=3 conn=Delta model=3 kv=13.800000000 kw = 585.71933 pf=0.92 status=variable vmaxpu=1.5 vminpu=0.5 daily="MT-Tipo1_SA" 
New "Load.MT_8986428_M1" bus1="89864285002409.1.2.3" phases=3 conn=Delta model=2 kv=13.800000000 kw = 7.914296 pf=0.92 status=variable vmaxpu=1.5 vminpu=0.5 daily="MT-Tipo6_SA"  
New "Load.MT_8986428_M2" bus1="89864285002409.1.2.3" phases=3 conn=Delta model=3 kv=13.800000000 kw = 7.914296 pf=0.92 status=variable vmaxpu=1.5 vminpu=0.5 daily="MT-Tipo6_SA" 
New "Load.MT_9552297_M1" bus1="95522975002409.1.2.3" phases=3 conn=Delta model=2 kv=13.800000000 kw = 1.830554 pf=0.92 status=variable vmaxpu=1.5 vminpu=0.5 daily="MT-Tipo6_SA"  
New "Load.MT_9552297_M2" bus1="95522975002409.1.2.3" phases=3 conn=Delta model=3 kv=13.800000000 kw = 1.830554 pf=0.92 status=variable vmaxpu=1.5 vminpu=0.5 daily="MT-Tipo6_SA" 
